$DATA1 SOURCE='FineSimPro' VERSION='L-2016.06-SP2-2'
.TITLE ''
        avgval0        avgval1        avgval2        avgval3        avgval4        avgval5        avgval6        avgval7        avgval8        avgval9            bld          bldin          czabd         temper         alter#
     6.1327e-01     6.4553e-01     6.2323e-01     6.3086e-01     6.0273e-01     6.3005e-01     6.1291e-01     6.1770e-01     6.1625e-01     6.1594e-01     6.5757e-01          error          error     2.5000e+01     1.0000e+00
