$DATA1 SOURCE='FineSimPro' VERSION='L-2016.06-SP2-2'
.TITLE ''
        avgval0        avgval1        avgval2        avgval3        avgval4        avgval5        avgval6        avgval7        avgval8        avgval9            bld          bldin          czabd         temper         alter#
     6.3239e-01     6.2099e-01     6.0778e-01     6.3904e-01     6.1021e-01     6.6001e-01     6.0192e-01     6.2142e-01     6.2947e-01     6.1581e-01     6.5757e-01          error          error     2.5000e+01     1.0000e+00
