$DATA1 SOURCE='FineSimPro' VERSION='L-2016.06-SP2-2'
.TITLE ''
        avgval0        avgval1        avgval2        avgval3        avgval4        avgval5        avgval6        avgval7        avgval8        avgval9            bld          bldin          czabd         temper         alter#
     6.1967e-01     6.2017e-01     6.2533e-01     6.4406e-01     6.1473e-01     6.2401e-01     6.0096e-01     6.3891e-01     6.2249e-01     6.2138e-01     6.5757e-01          error          error     2.5000e+01     1.0000e+00
