$DATA1 SOURCE='FineSimPro' VERSION='L-2016.06-SP2-2'
.TITLE ''
        avgval0        avgval1        avgval2        avgval3        avgval4        avgval5        avgval6        avgval7        avgval8        avgval9            bld          bldin          czabd         temper         alter#
     6.2223e-01     6.2987e-01     6.3921e-01     6.2669e-01     6.0313e-01     6.2210e-01     6.1124e-01     6.0832e-01     6.6205e-01     6.1758e-01     6.5757e-01          error          error     2.5000e+01     1.0000e+00
