$DATA1 SOURCE='FineSimPro' VERSION='L-2016.06-SP2-2'
.TITLE ''
        avgval0        avgval1        avgval2        avgval3        avgval4        avgval5        avgval6        avgval7        avgval8        avgval9            bld          bldin          czabd         temper         alter#
     6.3178e-01     6.2820e-01     6.4902e-01     6.3615e-01     5.9346e-01     6.3537e-01     6.0259e-01     6.0469e-01     6.3895e-01     6.1026e-01     6.5757e-01          error          error     2.5000e+01     1.0000e+00
