$DATA1 SOURCE='FineSimPro' VERSION='L-2016.06-SP2-2'
.TITLE ''
        avgval0        avgval1        avgval2        avgval3        avgval4        avgval5        avgval6        avgval7        avgval8        avgval9            bld          bldin          czabd         temper         alter#
     6.5105e-01     6.3920e-01     6.2750e-01     6.3576e-01     6.3247e-01     6.5265e-01     6.3662e-01     6.3549e-01     6.2745e-01     6.3334e-01     6.5757e-01          error          error     2.5000e+01     1.0000e+00
