$DATA1 SOURCE='FineSimPro' VERSION='L-2016.06-SP2-2'
.TITLE ''
        avgval0        avgval1        avgval2        avgval3        avgval4        avgval5        avgval6        avgval7        avgval8        avgval9            bld          bldin          czabd         temper         alter#
     6.3344e-01     6.1462e-01     6.2056e-01     6.3455e-01     6.3158e-01     6.2873e-01     5.9701e-01     6.1346e-01     6.2193e-01     6.4382e-01     6.5757e-01          error          error     2.5000e+01     1.0000e+00
