$DATA1 SOURCE='FineSimPro' VERSION='L-2016.06-SP2-2'
.TITLE ''
        avgval0        avgval1        avgval2        avgval3        avgval4        avgval5        avgval6        avgval7        avgval8        avgval9            bld          bldin          czabd         temper         alter#
     6.2780e-01     6.7533e-01     6.4128e-01     6.3327e-01     6.3592e-01     6.2201e-01     6.2524e-01     6.2154e-01     6.4990e-01     6.0552e-01     6.5757e-01          error          error     2.5000e+01     1.0000e+00
