$DATA1 SOURCE='FineSimPro' VERSION='L-2016.06-SP2-2'
.TITLE ''
        avgval0        avgval1        avgval2        avgval3        avgval4        avgval5        avgval6        avgval7        avgval8        avgval9            bld          bldin          czabd         temper         alter#
     6.3043e-01     6.7894e-01     6.4394e-01     6.3406e-01     6.4237e-01     6.2054e-01     6.2558e-01     6.1767e-01     6.4449e-01     6.1077e-01     6.5757e-01          error          error     2.5000e+01     1.0000e+00
