$DATA1 SOURCE='FineSimPro' VERSION='L-2016.06-SP2-2'
.TITLE ''
        avgval0        avgval1        avgval2        avgval3        avgval4        avgval5        avgval6        avgval7        avgval8        avgval9            bld          bldin          czabd         temper         alter#
     6.2663e-01     6.6995e-01     6.4247e-01     6.3268e-01     6.3201e-01     6.1887e-01     6.2688e-01     6.1915e-01     6.4914e-01     6.0622e-01     6.5757e-01          error          error     2.5000e+01     1.0000e+00
