$DATA1 SOURCE='FineSimPro' VERSION='L-2016.06-SP2-2'
.TITLE ''
        avgval0        avgval1        avgval2        avgval3        avgval4        avgval5        avgval6        avgval7        avgval8        avgval9            bld          bldin          czabd         temper         alter#
     6.2521e-01     6.6693e-01     6.3908e-01     6.3483e-01     6.3666e-01     6.2384e-01     6.2826e-01     6.1379e-01     6.4466e-01     6.1585e-01     6.5757e-01          error          error     2.5000e+01     1.0000e+00
