$DATA1 SOURCE='FineSimPro' VERSION='L-2016.06-SP2-2'
.TITLE ''
        avgval0        avgval1        avgval2        avgval3        avgval4        avgval5        avgval6        avgval7        avgval8        avgval9            bld          bldin          czabd         temper         alter#
     6.2833e-01     6.6657e-01     6.3350e-01     6.2908e-01     6.3968e-01     6.2463e-01     6.2867e-01     6.2146e-01     6.4389e-01     6.1733e-01     6.5757e-01          error          error     2.5000e+01     1.0000e+00
