$DATA1 SOURCE='FineSimPro' VERSION='L-2016.06-SP2-2'
.TITLE ''
        avgval0        avgval1        avgval2        avgval3        avgval4        avgval5        avgval6        avgval7        avgval8        avgval9            bld          bldin          czabd         temper         alter#
     6.2556e-01     6.7098e-01     6.3849e-01     6.3167e-01     6.3455e-01     6.2503e-01     6.2665e-01     6.1999e-01     6.5189e-01     6.0830e-01     6.5757e-01          error          error     2.5000e+01     1.0000e+00
