$DATA1 SOURCE='FineSimPro' VERSION='L-2016.06-SP2-2'
.TITLE ''
        avgval0        avgval1        avgval2        avgval3        avgval4        avgval5        avgval6        avgval7        avgval8        avgval9            bld          bldin          czabd         temper         alter#
     6.3227e-01     6.7047e-01     6.4876e-01     6.3072e-01     6.3874e-01     6.2640e-01     6.2103e-01     6.2594e-01     6.5047e-01     6.0901e-01     6.5757e-01          error          error     2.5000e+01     1.0000e+00
