$DATA1 SOURCE='FineSimPro' VERSION='L-2016.06-SP2-2'
.TITLE ''
        avgval0        avgval1        avgval2        avgval3        avgval4        avgval5        avgval6        avgval7        avgval8        avgval9            bld          bldin          czabd         temper         alter#
     6.2726e-01     6.5772e-01     6.3428e-01     6.3212e-01     6.4515e-01     6.2793e-01     6.2333e-01     6.3544e-01     6.4636e-01     6.2272e-01     6.5757e-01          error          error     2.5000e+01     1.0000e+00
