$DATA1 SOURCE='FineSimPro' VERSION='L-2016.06-SP2-2'
.TITLE ''
        avgval0        avgval1        avgval2        avgval3        avgval4        avgval5        avgval6        avgval7        avgval8        avgval9            bld          bldin          czabd         temper         alter#
     6.0884e-01     6.8912e-01     6.1612e-01     6.1566e-01     6.0999e-01     6.0201e-01     5.8770e-01     6.0393e-01     6.2641e-01     6.0770e-01     6.5757e-01          error          error     2.5000e+01     1.0000e+00
