$DATA1 SOURCE='FineSimPro' VERSION='L-2016.06-SP2-2'
.TITLE ''
        avgval0        avgval1        avgval2        avgval3        avgval4        avgval5        avgval6        avgval7        avgval8        avgval9            bld          bldin          czabd         temper         alter#
     5.9503e-01     6.1781e-01     6.0411e-01     5.7549e-01     6.8806e-01     6.0998e-01     6.0374e-01     6.1419e-01     6.3675e-01     6.0913e-01     6.5757e-01          error          error     2.5000e+01     1.0000e+00
