$DATA1 SOURCE='FineSimPro' VERSION='L-2016.06-SP2-2'
.TITLE ''
        avgval0        avgval1        avgval2        avgval3        avgval4        avgval5        avgval6        avgval7        avgval8        avgval9            bld          bldin          czabd         temper         alter#
     6.0033e-01     6.8281e-01     6.0919e-01     6.1871e-01     6.0508e-01     6.0187e-01     5.9477e-01     6.0381e-01     6.2179e-01     5.9410e-01     6.5757e-01          error          error     2.5000e+01     1.0000e+00
