$DATA1 SOURCE='FineSimPro' VERSION='L-2016.06-SP2-2'
.TITLE ''
        avgval0        avgval1        avgval2        avgval3        avgval4        avgval5        avgval6        avgval7        avgval8        avgval9            bld          bldin          czabd         temper         alter#
     6.0172e-01     6.8485e-01     6.0345e-01     6.1671e-01     6.1357e-01     6.0174e-01     5.9347e-01     6.0149e-01     6.2726e-01     5.8843e-01     6.5757e-01          error          error     2.5000e+01     1.0000e+00
