$DATA1 SOURCE='FineSimPro' VERSION='L-2016.06-SP2-2'
.TITLE ''
        avgval0        avgval1        avgval2        avgval3        avgval4        avgval5        avgval6        avgval7        avgval8        avgval9            bld          bldin          czabd         temper         alter#
     6.1396e-01     5.8837e-01     5.9934e-01     6.1939e-01     6.0060e-01     6.1931e-01     6.0604e-01     6.2762e-01     6.8772e-01     6.1969e-01     6.5757e-01          error          error     2.5000e+01     1.0000e+00
