$DATA1 SOURCE='FineSimPro' VERSION='L-2016.06-SP2-2'
.TITLE ''
        avgval0        avgval1        avgval2        avgval3        avgval4        avgval5        avgval6        avgval7        avgval8        avgval9            bld          bldin          czabd         temper         alter#
     6.1288e-01     5.8595e-01     5.8501e-01     6.0964e-01     6.1328e-01     6.9491e-01     6.0686e-01     6.0095e-01     6.1835e-01     6.0331e-01     6.5757e-01          error          error     2.5000e+01     1.0000e+00
