$DATA1 SOURCE='FineSimPro' VERSION='L-2016.06-SP2-2'
.TITLE ''
        avgval0        avgval1        avgval2        avgval3        avgval4        avgval5        avgval6        avgval7        avgval8        avgval9            bld          bldin          czabd         temper         alter#
     6.3124e-01     5.8858e-01     5.9903e-01     5.9283e-01     6.2907e-01     6.0497e-01     5.8115e-01     6.2464e-01     6.1336e-01     6.9138e-01     6.5757e-01          error          error     2.5000e+01     1.0000e+00
