$DATA1 SOURCE='FineSimPro' VERSION='L-2016.06-SP2-2'
.TITLE ''
        avgval0        avgval1        avgval2        avgval3        avgval4        avgval5        avgval6        avgval7        avgval8        avgval9            bld          bldin          czabd         temper         alter#
     6.1885e-01     5.8697e-01     5.9141e-01     6.2130e-01     6.2826e-01     5.9577e-01     5.9614e-01     6.3291e-01     6.2705e-01     6.8133e-01     6.5757e-01          error          error     2.5000e+01     1.0000e+00
