$DATA1 SOURCE='FineSimPro' VERSION='L-2016.06-SP2-2'
.TITLE ''
        avgval0        avgval1        avgval2        avgval3        avgval4        avgval5        avgval6        avgval7        avgval8        avgval9            bld          bldin          czabd         temper         alter#
     6.2333e-01     5.9551e-01     5.9854e-01     5.9621e-01     6.1942e-01     6.2983e-01     6.8597e-01     6.1215e-01     6.1307e-01     5.9234e-01     6.5757e-01          error          error     2.5000e+01     1.0000e+00
