$DATA1 SOURCE='FineSimPro' VERSION='L-2016.06-SP2-2'
.TITLE ''
        avgval0        avgval1        avgval2        avgval3        avgval4        avgval5        avgval6        avgval7        avgval8        avgval9            bld          bldin          czabd         temper         alter#
     6.1791e-01     6.0396e-01     6.7147e-01     6.2555e-01     5.9055e-01     6.4150e-01     6.1210e-01     5.8237e-01     6.1351e-01     5.9612e-01     6.5757e-01          error          error     2.5000e+01     1.0000e+00
