$DATA1 SOURCE='FineSimPro' VERSION='L-2016.06-SP2-2'
.TITLE ''
        avgval0        avgval1        avgval2        avgval3        avgval4        avgval5        avgval6        avgval7        avgval8        avgval9            bld          bldin          czabd         temper         alter#
     6.2933e-01     5.5657e-01     6.5873e-01     6.5060e-01     6.1534e-01     6.1270e-01     6.1761e-01     5.9470e-01     6.4331e-01     6.0067e-01     6.5757e-01          error          error     2.5000e+01     1.0000e+00
