$DATA1 SOURCE='FineSimPro' VERSION='L-2016.06-SP2-2'
.TITLE ''
        avgval0        avgval1        avgval2        avgval3        avgval4        avgval5        avgval6        avgval7        avgval8        avgval9            bld          bldin          czabd         temper         alter#
     6.1077e-01     5.8784e-01     6.9255e-01     6.1971e-01     6.0828e-01     6.0729e-01     5.8959e-01     5.9865e-01     6.0825e-01     5.9218e-01     6.5757e-01          error          error     2.5000e+01     1.0000e+00
