$DATA1 SOURCE='FineSimPro' VERSION='L-2016.06-SP2-2'
.TITLE ''
        avgval0        avgval1        avgval2        avgval3        avgval4        avgval5        avgval6        avgval7        avgval8        avgval9            bld          bldin          czabd         temper         alter#
     6.1801e-01     5.8214e-01     5.9184e-01     6.0519e-01     6.0989e-01     7.0407e-01     5.9457e-01     6.0000e-01     6.1877e-01     5.9882e-01     6.5757e-01          error          error     2.5000e+01     1.0000e+00
