$DATA1 SOURCE='FineSimPro' VERSION='L-2016.06-SP2-2'
.TITLE ''
        avgval0        avgval1        avgval2        avgval3        avgval4        avgval5        avgval6        avgval7        avgval8        avgval9            bld          bldin          czabd         temper         alter#
     6.0463e-01     6.8559e-01     6.2323e-01     6.1509e-01     6.2371e-01     6.0154e-01     5.9428e-01     6.0238e-01     6.2622e-01     5.9223e-01     6.5757e-01          error          error     2.5000e+01     1.0000e+00
