$DATA1 SOURCE='FineSimPro' VERSION='L-2016.06-SP2-2'
.TITLE ''
        avgval0        avgval1        avgval2        avgval3        avgval4        avgval5        avgval6        avgval7        avgval8        avgval9            bld          bldin          czabd         temper         alter#
     6.0516e-01     5.9077e-01     5.9503e-01     6.0720e-01     6.1834e-01     6.9510e-01     6.1126e-01     5.8980e-01     6.3210e-01     6.0135e-01     6.5757e-01          error          error     2.5000e+01     1.0000e+00
