$DATA1 SOURCE='FineSimPro' VERSION='L-2016.06-SP2-2'
.TITLE ''
        avgval0        avgval1        avgval2        avgval3        avgval4        avgval5        avgval6        avgval7        avgval8        avgval9            bld          bldin          czabd         temper         alter#
     6.1765e-01     5.8638e-01     6.1074e-01     6.0931e-01     6.0888e-01     5.9533e-01     5.9901e-01     7.0247e-01     6.0481e-01     6.0620e-01     6.5757e-01          error          error     2.5000e+01     1.0000e+00
