$DATA1 SOURCE='FineSimPro' VERSION='L-2016.06-SP2-2'
.TITLE ''
        avgval0        avgval1        avgval2        avgval3        avgval4        avgval5        avgval6        avgval7        avgval8        avgval9            bld          bldin          czabd         temper         alter#
     6.2013e-01     5.7638e-01     6.6987e-01     6.3346e-01     5.9127e-01     6.3348e-01     5.9180e-01     6.0883e-01     6.0263e-01     5.7429e-01     6.5757e-01          error          error     2.5000e+01     1.0000e+00
