$DATA1 SOURCE='FineSimPro' VERSION='L-2016.06-SP2-2'
.TITLE ''
        avgval0        avgval1        avgval2        avgval3        avgval4        avgval5        avgval6        avgval7        avgval8        avgval9            bld          bldin          czabd         temper         alter#
     6.1877e-01     5.9345e-01     6.2279e-01     6.2653e-01     6.0655e-01     5.8165e-01     5.6363e-01     6.8591e-01     6.1741e-01     6.1200e-01     6.5757e-01          error          error     2.5000e+01     1.0000e+00
