$DATA1 SOURCE='FineSimPro' VERSION='L-2016.06-SP2-2'
.TITLE ''
        avgval0        avgval1        avgval2        avgval3        avgval4        avgval5        avgval6        avgval7        avgval8        avgval9            bld          bldin          czabd         temper         alter#
     6.1806e-01     5.7828e-01     5.8086e-01     5.8805e-01     7.0378e-01     6.0503e-01     5.9131e-01     6.3104e-01     5.9821e-01     6.0454e-01     6.5757e-01          error          error     2.5000e+01     1.0000e+00
