$DATA1 SOURCE='FineSimPro' VERSION='L-2016.06-SP2-2'
.TITLE ''
        avgval0        avgval1        avgval2        avgval3        avgval4        avgval5        avgval6        avgval7        avgval8        avgval9            bld          bldin          czabd         temper         alter#
     5.9705e-01     6.0313e-01     6.8096e-01     6.2307e-01     6.1275e-01     6.0944e-01     5.8129e-01     6.2029e-01     6.2999e-01     5.9126e-01     6.5757e-01          error          error     2.5000e+01     1.0000e+00
