$DATA1 SOURCE='FineSimPro' VERSION='L-2016.06-SP2-2'
.TITLE ''
        avgval0        avgval1        avgval2        avgval3        avgval4        avgval5        avgval6        avgval7        avgval8        avgval9            bld          bldin          czabd         temper         alter#
     6.1177e-01     5.9576e-01     5.9589e-01     5.9831e-01     7.0928e-01     6.0679e-01     5.8850e-01     6.1143e-01     6.1435e-01     5.9547e-01     6.5757e-01          error          error     2.5000e+01     1.0000e+00
