$DATA1 SOURCE='FineSimPro' VERSION='L-2016.06-SP2-2'
.TITLE ''
        avgval0        avgval1        avgval2        avgval3        avgval4        avgval5        avgval6        avgval7        avgval8        avgval9            bld          bldin          czabd         temper         alter#
     6.1050e-01     5.8621e-01     5.8407e-01     6.1887e-01     6.1368e-01     6.9335e-01     5.9490e-01     6.0408e-01     6.2199e-01     6.0213e-01     6.5757e-01          error          error     2.5000e+01     1.0000e+00
