$DATA1 SOURCE='FineSimPro' VERSION='L-2016.06-SP2-2'
.TITLE ''
        avgval0        avgval1        avgval2        avgval3        avgval4        avgval5        avgval6        avgval7        avgval8        avgval9            bld          bldin          czabd         temper         alter#
     7.0989e-01     5.9249e-01     5.8956e-01     6.0890e-01     5.9354e-01     5.9700e-01     5.9482e-01     6.1106e-01     6.1823e-01     5.9568e-01     6.5757e-01          error          error     2.5000e+01     1.0000e+00
