$DATA1 SOURCE='FineSimPro' VERSION='L-2016.06-SP2-2'
.TITLE ''
        avgval0        avgval1        avgval2        avgval3        avgval4        avgval5        avgval6        avgval7        avgval8        avgval9            bld          bldin          czabd         temper         alter#
     5.7073e-01     6.0512e-01     6.4228e-01     6.5033e-01     6.3019e-01     6.0831e-01     5.7234e-01     5.9834e-01     6.5972e-01     6.0854e-01     6.5757e-01          error          error     2.5000e+01     1.0000e+00
