$DATA1 SOURCE='FineSimPro' VERSION='L-2016.06-SP2-2'
.TITLE ''
        avgval0        avgval1        avgval2        avgval3        avgval4        avgval5        avgval6        avgval7        avgval8        avgval9            bld          bldin          czabd         temper         alter#
     6.3299e-01     5.7731e-01     6.3256e-01     6.6183e-01     6.0142e-01     6.3344e-01     6.0607e-01     5.7256e-01     6.4557e-01     5.7998e-01     6.5757e-01          error          error     2.5000e+01     1.0000e+00
