$DATA1 SOURCE='FineSimPro' VERSION='L-2016.06-SP2-2'
.TITLE ''
        avgval0        avgval1        avgval2        avgval3        avgval4        avgval5        avgval6        avgval7        avgval8        avgval9            bld          bldin          czabd         temper         alter#
     5.9977e-01     6.9099e-01     6.1627e-01     6.2200e-01     6.1351e-01     6.0000e-01     5.9335e-01     5.9840e-01     6.2784e-01     6.0296e-01     6.5757e-01          error          error     2.5000e+01     1.0000e+00
