$DATA1 SOURCE='FineSimPro' VERSION='L-2016.06-SP2-2'
.TITLE ''
        avgval0        avgval1        avgval2        avgval3        avgval4        avgval5        avgval6        avgval7        avgval8        avgval9            bld          bldin          czabd         temper         alter#
     6.2590e-01     5.8245e-01     5.8680e-01     6.0135e-01     6.1196e-01     6.3570e-01     6.7710e-01     6.0528e-01     6.2115e-01     5.9158e-01     6.5757e-01          error          error     2.5000e+01     1.0000e+00
