$DATA1 SOURCE='FineSimPro' VERSION='L-2016.06-SP2-2'
.TITLE ''
        avgval0        avgval1        avgval2        avgval3        avgval4        avgval5        avgval6        avgval7        avgval8        avgval9            bld          bldin          czabd         temper         alter#
     6.1696e-01     5.9402e-01     5.9999e-01     6.1259e-01     6.0648e-01     5.8923e-01     5.9548e-01     7.0831e-01     5.9680e-01     5.9552e-01     6.5757e-01          error          error     2.5000e+01     1.0000e+00
