$DATA1 SOURCE='FineSimPro' VERSION='L-2016.06-SP2-2'
.TITLE ''
        avgval0        avgval1        avgval2        avgval3        avgval4        avgval5        avgval6        avgval7        avgval8        avgval9            bld          bldin          czabd         temper         alter#
     6.0685e-01     6.8721e-01     6.0763e-01     6.1073e-01     6.1722e-01     5.9914e-01     5.9866e-01     6.0677e-01     6.2476e-01     6.0052e-01     6.5757e-01          error          error     2.5000e+01     1.0000e+00
