$DATA1 SOURCE='FineSimPro' VERSION='L-2016.06-SP2-2'
.TITLE ''
        avgval0        avgval1        avgval2        avgval3        avgval4        avgval5        avgval6        avgval7        avgval8        avgval9            bld          bldin          czabd         temper         alter#
     6.1240e-01     5.7908e-01     5.9906e-01     6.1184e-01     6.1363e-01     6.0799e-01     5.9914e-01     6.0185e-01     7.0903e-01     6.0548e-01     6.5757e-01          error          error     2.5000e+01     1.0000e+00
