$DATA1 SOURCE='FineSimPro' VERSION='L-2016.06-SP2-2'
.TITLE ''
        avgval0        avgval1        avgval2        avgval3        avgval4        avgval5        avgval6        avgval7        avgval8        avgval9            bld          bldin          czabd         temper         alter#
     5.9412e-01     6.8890e-01     6.1292e-01     6.1605e-01     6.3105e-01     5.9719e-01     5.9250e-01     6.0511e-01     6.3151e-01     5.9681e-01     6.5757e-01          error          error     2.5000e+01     1.0000e+00
