$DATA1 SOURCE='FineSimPro' VERSION='L-2016.06-SP2-2'
.TITLE ''
        avgval0        avgval1        avgval2        avgval3        avgval4        avgval5        avgval6        avgval7        avgval8        avgval9            bld          bldin          czabd         temper         alter#
     7.0998e-01     5.9179e-01     5.9019e-01     5.9963e-01     6.0761e-01     6.0354e-01     5.9002e-01     6.2112e-01     6.1717e-01     5.9868e-01     6.5757e-01          error          error     2.5000e+01     1.0000e+00
