$DATA1 SOURCE='FineSimPro' VERSION='L-2016.06-SP2-2'
.TITLE ''
        avgval0        avgval1        avgval2        avgval3        avgval4        avgval5        avgval6        avgval7        avgval8        avgval9            bld          bldin          czabd         temper         alter#
     5.9177e-01     5.7614e-01     6.0627e-01     6.9170e-01     6.0596e-01     6.1312e-01     5.9003e-01     5.9953e-01     6.1930e-01     5.9094e-01     6.5757e-01          error          error     2.5000e+01     1.0000e+00
