$DATA1 SOURCE='FineSimPro' VERSION='L-2016.06-SP2-2'
.TITLE ''
        avgval0        avgval1        avgval2        avgval3        avgval4        avgval5        avgval6        avgval7        avgval8        avgval9            bld          bldin          czabd         temper         alter#
     6.3350e-01     6.1596e-01     6.2207e-01     6.7053e-01     5.6005e-01     6.2678e-01     6.1972e-01     6.0568e-01     6.1991e-01     5.9264e-01     6.5757e-01          error          error     2.5000e+01     1.0000e+00
