$DATA1 SOURCE='FineSimPro' VERSION='L-2016.06-SP2-2'
.TITLE ''
        avgval0        avgval1        avgval2        avgval3        avgval4        avgval5        avgval6        avgval7        avgval8        avgval9            bld          bldin          czabd         temper         alter#
     6.2189e-01     5.9113e-01     5.9193e-01     5.9501e-01     6.1011e-01     6.0608e-01     6.8917e-01     6.2316e-01     6.0378e-01     5.8396e-01     6.5757e-01          error          error     2.5000e+01     1.0000e+00
