$DATA1 SOURCE='FineSimPro' VERSION='L-2016.06-SP2-2'
.TITLE ''
        avgval0        avgval1        avgval2        avgval3        avgval4        avgval5        avgval6        avgval7        avgval8        avgval9            bld          bldin          czabd         temper         alter#
     6.1482e-01     5.8835e-01     6.0433e-01     5.9858e-01     6.2087e-01     6.2150e-01     5.8878e-01     6.0027e-01     6.9645e-01     6.1669e-01     6.5757e-01          error          error     2.5000e+01     1.0000e+00
