$DATA1 SOURCE='FineSimPro' VERSION='L-2016.06-SP2-2'
.TITLE ''
        avgval0        avgval1        avgval2        avgval3        avgval4        avgval5        avgval6        avgval7        avgval8        avgval9            bld          bldin          czabd         temper         alter#
     6.0563e-01     6.0211e-01     6.0233e-01     5.9791e-01     6.0970e-01     6.1001e-01     5.8510e-01     6.9323e-01     5.8704e-01     5.9968e-01     6.5757e-01          error          error     2.5000e+01     1.0000e+00
