$DATA1 SOURCE='FineSimPro' VERSION='L-2016.06-SP2-2'
.TITLE ''
        avgval0        avgval1        avgval2        avgval3        avgval4        avgval5        avgval6        avgval7        avgval8        avgval9            bld          bldin          czabd         temper         alter#
     5.9747e-01     5.8130e-01     5.9354e-01     6.1422e-01     6.0990e-01     6.0424e-01     5.9265e-01     6.9021e-01     6.1484e-01     5.9538e-01     6.5757e-01          error          error     2.5000e+01     1.0000e+00
