$DATA1 SOURCE='FineSimPro' VERSION='L-2016.06-SP2-2'
.TITLE ''
        avgval0        avgval1        avgval2        avgval3        avgval4        avgval5        avgval6        avgval7        avgval8        avgval9            bld          bldin          czabd         temper         alter#
     5.9623e-01     6.8944e-01     6.1233e-01     6.0425e-01     6.0955e-01     5.8233e-01     5.9074e-01     6.0823e-01     6.3679e-01     5.9808e-01     6.5757e-01          error          error     2.5000e+01     1.0000e+00
