$DATA1 SOURCE='FineSimPro' VERSION='L-2016.06-SP2-2'
.TITLE ''
        avgval0        avgval1        avgval2        avgval3        avgval4        avgval5        avgval6        avgval7        avgval8        avgval9            bld          bldin          czabd         temper         alter#
     6.1628e-01     5.9715e-01     6.1847e-01     6.1026e-01     6.1938e-01     5.9812e-01     5.9690e-01     7.0343e-01     5.8710e-01     6.0509e-01     6.5757e-01          error          error     2.5000e+01     1.0000e+00
