$DATA1 SOURCE='FineSimPro' VERSION='L-2016.06-SP2-2'
.TITLE ''
        avgval0        avgval1        avgval2        avgval3        avgval4        avgval5        avgval6        avgval7        avgval8        avgval9            bld          bldin          czabd         temper         alter#
     6.1275e-01     5.8452e-01     6.2231e-01     6.7190e-01     5.8810e-01     6.4930e-01     6.0120e-01     6.1285e-01     5.8904e-01     5.9398e-01     6.5757e-01          error          error     2.5000e+01     1.0000e+00
