$DATA1 SOURCE='FineSimPro' VERSION='L-2016.06-SP2-2'
.TITLE ''
        avgval0        avgval1        avgval2        avgval3        avgval4        avgval5        avgval6        avgval7        avgval8        avgval9            bld          bldin          czabd         temper         alter#
     6.0354e-01     6.9052e-01     6.0970e-01     6.0839e-01     6.1015e-01     5.9984e-01     5.8964e-01     6.0821e-01     6.3302e-01     6.0551e-01     6.5757e-01          error          error     2.5000e+01     1.0000e+00
