$DATA1 SOURCE='FineSimPro' VERSION='L-2016.06-SP2-2'
.TITLE ''
        avgval0        avgval1        avgval2        avgval3        avgval4        avgval5        avgval6        avgval7        avgval8        avgval9            bld          bldin          czabd         temper         alter#
     6.2483e-01     5.8758e-01     5.7393e-01     6.1917e-01     6.5264e-01     5.9947e-01     5.9211e-01     6.7881e-01     5.9356e-01     6.4025e-01     6.5757e-01          error          error     2.5000e+01     1.0000e+00
