$DATA1 SOURCE='FineSimPro' VERSION='L-2016.06-SP2-2'
.TITLE ''
        avgval0        avgval1        avgval2        avgval3        avgval4        avgval5        avgval6        avgval7        avgval8        avgval9            bld          bldin          czabd         temper         alter#
     6.1457e-01     5.9531e-01     5.6804e-01     5.9616e-01     6.1542e-01     6.1187e-01     6.9956e-01     6.0899e-01     6.1191e-01     5.9187e-01     6.5757e-01          error          error     2.5000e+01     1.0000e+00
