$DATA1 SOURCE='FineSimPro' VERSION='L-2016.06-SP2-2'
.TITLE ''
        avgval0        avgval1        avgval2        avgval3        avgval4        avgval5        avgval6        avgval7        avgval8        avgval9            bld          bldin          czabd         temper         alter#
     6.0932e-01     5.8029e-01     5.9668e-01     6.1405e-01     6.9847e-01     6.2293e-01     5.8433e-01     6.0696e-01     6.0356e-01     6.1285e-01     6.5757e-01          error          error     2.5000e+01     1.0000e+00
