$DATA1 SOURCE='FineSimPro' VERSION='L-2016.06-SP2-2'
.TITLE ''
        avgval0        avgval1        avgval2        avgval3        avgval4        avgval5        avgval6        avgval7        avgval8        avgval9            bld          bldin          czabd         temper         alter#
     6.1606e-01     5.9215e-01     5.9504e-01     6.0075e-01     7.0063e-01     6.0431e-01     5.7302e-01     6.0867e-01     6.0202e-01     6.1716e-01     6.5757e-01          error          error     2.5000e+01     1.0000e+00
