$DATA1 SOURCE='FineSimPro' VERSION='L-2016.06-SP2-2'
.TITLE ''
        avgval0        avgval1        avgval2        avgval3        avgval4        avgval5        avgval6        avgval7        avgval8        avgval9            bld          bldin          czabd         temper         alter#
     5.9876e-01     6.8985e-01     6.1691e-01     6.1053e-01     5.9031e-01     6.1184e-01     6.1244e-01     6.1978e-01     6.1399e-01     6.1062e-01     6.5757e-01          error          error     2.5000e+01     1.0000e+00
