$DATA1 SOURCE='FineSimPro' VERSION='L-2016.06-SP2-2'
.TITLE ''
        avgval0        avgval1        avgval2        avgval3        avgval4        avgval5        avgval6        avgval7        avgval8        avgval9            bld          bldin          czabd         temper         alter#
     6.1921e-01     5.8934e-01     6.9481e-01     6.1890e-01     6.0290e-01     6.0498e-01     5.9125e-01     6.0374e-01     6.0943e-01     6.1155e-01     6.5757e-01          error          error     2.5000e+01     1.0000e+00
