$DATA1 SOURCE='FineSimPro' VERSION='L-2016.06-SP2-2'
.TITLE ''
        avgval0        avgval1        avgval2        avgval3        avgval4        avgval5        avgval6        avgval7        avgval8        avgval9            bld          bldin          czabd         temper         alter#
     6.0189e-01     6.0951e-01     5.9260e-01     6.8715e-01     5.9844e-01     5.9829e-01     5.9144e-01     6.1574e-01     6.3469e-01     5.9544e-01     6.5757e-01          error          error     2.5000e+01     1.0000e+00
