$DATA1 SOURCE='FineSimPro' VERSION='L-2016.06-SP2-2'
.TITLE ''
        avgval0        avgval1        avgval2        avgval3        avgval4        avgval5        avgval6        avgval7        avgval8        avgval9            bld          bldin          czabd         temper         alter#
     7.0209e-01     5.8837e-01     5.9403e-01     6.0694e-01     5.8768e-01     6.0234e-01     6.0892e-01     6.0450e-01     6.2418e-01     6.1830e-01     6.5757e-01          error          error     2.5000e+01     1.0000e+00
