$DATA1 SOURCE='FineSimPro' VERSION='L-2016.06-SP2-2'
.TITLE ''
        avgval0        avgval1        avgval2        avgval3        avgval4        avgval5        avgval6        avgval7        avgval8        avgval9            bld          bldin          czabd         temper         alter#
     6.1264e-01     5.9942e-01     6.0775e-01     6.0140e-01     6.0712e-01     6.0695e-01     6.0966e-01     6.9440e-01     6.1897e-01     6.0901e-01     6.5757e-01          error          error     2.5000e+01     1.0000e+00
