$DATA1 SOURCE='FineSimPro' VERSION='L-2016.06-SP2-2'
.TITLE ''
        avgval0        avgval1        avgval2        avgval3        avgval4        avgval5        avgval6        avgval7        avgval8        avgval9            bld          bldin          czabd         temper         alter#
     5.8424e-01     5.7548e-01     6.1481e-01     6.1509e-01     6.0784e-01     6.1153e-01     5.9067e-01     6.8605e-01     6.0697e-01     6.2301e-01     6.5757e-01          error          error     2.5000e+01     1.0000e+00
