$DATA1 SOURCE='FineSimPro' VERSION='L-2016.06-SP2-2'
.TITLE ''
        avgval0        avgval1        avgval2        avgval3        avgval4        avgval5        avgval6        avgval7        avgval8        avgval9            bld          bldin          czabd         temper         alter#
     5.8881e-01     5.8834e-01     6.1521e-01     6.0469e-01     6.0612e-01     6.1165e-01     5.9997e-01     6.0055e-01     7.0780e-01     6.0791e-01     6.5757e-01          error          error     2.5000e+01     1.0000e+00
