$DATA1 SOURCE='FineSimPro' VERSION='L-2016.06-SP2-2'
.TITLE ''
        avgval0        avgval1        avgval2        avgval3        avgval4        avgval5        avgval6        avgval7        avgval8        avgval9            bld          bldin          czabd         temper         alter#
     6.1917e-01     5.8547e-01     5.9619e-01     6.0370e-01     6.0849e-01     5.9037e-01     5.7939e-01     6.1633e-01     6.1422e-01     6.8637e-01     6.5757e-01          error          error     2.5000e+01     1.0000e+00
