$DATA1 SOURCE='FineSimPro' VERSION='L-2016.06-SP2-2'
.TITLE ''
        avgval0        avgval1        avgval2        avgval3        avgval4        avgval5        avgval6        avgval7        avgval8        avgval9            bld          bldin          czabd         temper         alter#
     6.2629e-01     6.3295e-01     6.0023e-01     6.3820e-01     6.1998e-01     6.4954e-01     6.0854e-01     5.8617e-01     6.1998e-01     6.0974e-01     6.5757e-01          error          error     2.5000e+01     1.0000e+00
