$DATA1 SOURCE='FineSimPro' VERSION='L-2016.06-SP2-2'
.TITLE ''
        avgval0        avgval1        avgval2        avgval3        avgval4        avgval5        avgval6        avgval7        avgval8        avgval9            bld          bldin          czabd         temper         alter#
     6.3377e-01     6.4690e-01     6.1775e-01     6.3955e-01     6.1694e-01     6.3252e-01     5.9302e-01     5.8624e-01     6.3198e-01     5.9491e-01     6.5757e-01          error          error     2.5000e+01     1.0000e+00
