$DATA1 SOURCE='FineSimPro' VERSION='L-2016.06-SP2-2'
.TITLE ''
        avgval0        avgval1        avgval2        avgval3        avgval4        avgval5        avgval6        avgval7        avgval8        avgval9            bld          bldin          czabd         temper         alter#
     6.2377e-01     6.0059e-01     6.0254e-01     6.6749e-01     6.1463e-01     6.2543e-01     5.9430e-01     6.0211e-01     6.3352e-01     6.0288e-01     6.5757e-01          error          error     2.5000e+01     1.0000e+00
