$DATA1 SOURCE='FineSimPro' VERSION='L-2016.06-SP2-2'
.TITLE ''
        avgval0        avgval1        avgval2        avgval3        avgval4        avgval5        avgval6        avgval7        avgval8        avgval9            bld          bldin          czabd         temper         alter#
     6.3799e-01     5.7907e-01     6.0052e-01     6.3364e-01     6.2089e-01     6.7633e-01     6.0310e-01     5.8846e-01     6.2747e-01     5.9208e-01     6.5757e-01          error          error     2.5000e+01     1.0000e+00
