$DATA1 SOURCE='FineSimPro' VERSION='L-2016.06-SP2-2'
.TITLE ''
        avgval0        avgval1        avgval2        avgval3        avgval4        avgval5        avgval6        avgval7        avgval8        avgval9            bld          bldin          czabd         temper         alter#
     6.3296e-01     5.8224e-01     5.9929e-01     6.3482e-01     6.2944e-01     6.5906e-01     6.0499e-01     5.8070e-01     6.4620e-01     6.1374e-01     6.5757e-01          error          error     2.5000e+01     1.0000e+00
