$DATA1 SOURCE='FineSimPro' VERSION='L-2016.06-SP2-2'
.TITLE ''
        avgval0        avgval1        avgval2        avgval3        avgval4        avgval5        avgval6        avgval7        avgval8        avgval9            bld          bldin          czabd         temper         alter#
     6.4010e-01     5.9584e-01     5.8665e-01     6.3344e-01     6.1907e-01     6.5379e-01     5.9657e-01     5.9795e-01     6.2703e-01     6.0757e-01     6.5757e-01          error          error     2.5000e+01     1.0000e+00
