$DATA1 SOURCE='FineSimPro' VERSION='L-2016.06-SP2-2'
.TITLE ''
        avgval0        avgval1        avgval2        avgval3        avgval4        avgval5        avgval6        avgval7        avgval8        avgval9            bld          bldin          czabd         temper         alter#
     6.7978e-01     5.6078e-01     6.1207e-01     6.1520e-01     6.2426e-01     6.3844e-01     6.0099e-01     5.9575e-01     6.0474e-01     6.0406e-01     6.5757e-01          error          error     2.5000e+01     1.0000e+00
