$DATA1 SOURCE='FineSimPro' VERSION='L-2016.06-SP2-2'
.TITLE ''
        avgval0        avgval1        avgval2        avgval3        avgval4        avgval5        avgval6        avgval7        avgval8        avgval9            bld          bldin          czabd         temper         alter#
     6.0885e-01     6.3473e-01     6.4246e-01     6.4547e-01     6.1461e-01     6.4129e-01     6.2247e-01     5.9375e-01     6.3934e-01     5.9660e-01     6.5757e-01          error          error     2.5000e+01     1.0000e+00
