$DATA1 SOURCE='FineSimPro' VERSION='L-2016.06-SP2-2'
.TITLE ''
        avgval0        avgval1        avgval2        avgval3        avgval4        avgval5        avgval6        avgval7        avgval8        avgval9            bld          bldin          czabd         temper         alter#
     6.2720e-01     6.4997e-01     6.3605e-01     6.4780e-01     6.0173e-01     6.4108e-01     6.1457e-01     6.1486e-01     6.3480e-01     6.1957e-01     6.5757e-01          error          error     2.5000e+01     1.0000e+00
