$DATA1 SOURCE='FineSimPro' VERSION='L-2016.06-SP2-2'
.TITLE ''
        avgval0        avgval1        avgval2        avgval3        avgval4        avgval5        avgval6        avgval7        avgval8        avgval9            bld          bldin          czabd         temper         alter#
     6.1531e-01     6.2854e-01     6.2615e-01     6.6358e-01     6.1263e-01     6.3885e-01     6.1733e-01     6.2264e-01     6.4621e-01     6.1819e-01     6.5757e-01          error          error     2.5000e+01     1.0000e+00
