$DATA1 SOURCE='FineSimPro' VERSION='L-2016.06-SP2-2'
.TITLE ''
        avgval0        avgval1        avgval2        avgval3        avgval4        avgval5        avgval6        avgval7        avgval8        avgval9            bld          bldin          czabd         temper         alter#
     6.1431e-01     6.2919e-01     6.1310e-01     6.6110e-01     6.2157e-01     6.5475e-01     6.1776e-01     6.1172e-01     6.5885e-01     6.2764e-01     6.5757e-01          error          error     2.5000e+01     1.0000e+00
