$DATA1 SOURCE='FineSimPro' VERSION='L-2016.06-SP2-2'
.TITLE ''
        avgval0        avgval1        avgval2        avgval3        avgval4        avgval5        avgval6        avgval7        avgval8        avgval9            bld          bldin          czabd         temper         alter#
     6.3448e-01     6.7221e-01     6.4234e-01     6.4659e-01     6.4768e-01     6.4274e-01     6.4624e-01     6.4532e-01     6.4272e-01     6.3546e-01     6.5757e-01          error          error     2.5000e+01     1.0000e+00
