$DATA1 SOURCE='FineSimPro' VERSION='L-2016.06-SP2-2'
.TITLE ''
        avgval0        avgval1        avgval2        avgval3        avgval4        avgval5        avgval6        avgval7        avgval8        avgval9            bld          bldin          czabd         temper         alter#
     6.3311e-01     6.7397e-01     6.4455e-01     6.4861e-01     6.4430e-01     6.4457e-01     6.4456e-01     6.4532e-01     6.4023e-01     6.3076e-01     6.5757e-01          error          error     2.5000e+01     1.0000e+00
