$DATA1 SOURCE='FineSimPro' VERSION='L-2016.06-SP2-2'
.TITLE ''
        avgval0        avgval1        avgval2        avgval3        avgval4        avgval5        avgval6        avgval7        avgval8        avgval9            bld          bldin          czabd         temper         alter#
     6.3711e-01     6.6456e-01     6.4878e-01     6.4433e-01     6.4016e-01     6.4097e-01     6.4638e-01     6.4939e-01     6.3572e-01     6.2703e-01     6.5757e-01          error          error     2.5000e+01     1.0000e+00
