$DATA1 SOURCE='FineSimPro' VERSION='L-2016.06-SP2-2'
.TITLE ''
        avgval0        avgval1        avgval2        avgval3        avgval4        avgval5        avgval6        avgval7        avgval8        avgval9            bld          bldin          czabd         temper         alter#
     6.4072e-01     6.6982e-01     6.4041e-01     6.4997e-01     6.4181e-01     6.5206e-01     6.4801e-01     6.5259e-01     6.3747e-01     6.3241e-01     6.5757e-01          error          error     2.5000e+01     1.0000e+00
