$DATA1 SOURCE='FineSimPro' VERSION='L-2016.06-SP2-2'
.TITLE ''
        avgval0        avgval1        avgval2        avgval3        avgval4        avgval5        avgval6        avgval7        avgval8        avgval9            bld          bldin          czabd         temper         alter#
     6.3004e-01     6.6854e-01     6.4448e-01     6.4847e-01     6.4953e-01     6.5034e-01     6.4017e-01     6.4906e-01     6.4233e-01     6.3891e-01     6.5757e-01          error          error     2.5000e+01     1.0000e+00
