$DATA1 SOURCE='FineSimPro' VERSION='L-2016.06-SP2-2'
.TITLE ''
        avgval0        avgval1        avgval2        avgval3        avgval4        avgval5        avgval6        avgval7        avgval8        avgval9            bld          bldin          czabd         temper         alter#
     6.4189e-01     6.7053e-01     6.4503e-01     6.4903e-01     6.3730e-01     6.4545e-01     6.5451e-01     6.5237e-01     6.3425e-01     6.3789e-01     6.5757e-01          error          error     2.5000e+01     1.0000e+00
