$DATA1 SOURCE='FineSimPro' VERSION='L-2016.06-SP2-2'
.TITLE ''
        avgval0        avgval1        avgval2        avgval3        avgval4        avgval5        avgval6        avgval7        avgval8        avgval9            bld          bldin          czabd         temper         alter#
     6.3585e-01     6.6711e-01     6.4958e-01     6.4672e-01     6.4338e-01     6.4456e-01     6.3941e-01     6.5603e-01     6.4267e-01     6.3359e-01     6.5757e-01          error          error     2.5000e+01     1.0000e+00
