$DATA1 SOURCE='FineSimPro' VERSION='L-2016.06-SP2-2'
.TITLE ''
        avgval0        avgval1        avgval2        avgval3        avgval4        avgval5        avgval6        avgval7        avgval8        avgval9            bld          bldin          czabd         temper         alter#
     6.3480e-01     6.6786e-01     6.4631e-01     6.4808e-01     6.4965e-01     6.4776e-01     6.4170e-01     6.5128e-01     6.4437e-01     6.3909e-01     6.5757e-01          error          error     2.5000e+01     1.0000e+00
