$DATA1 SOURCE='FineSimPro' VERSION='L-2016.06-SP2-2'
.TITLE ''
        avgval0        avgval1        avgval2        avgval3        avgval4        avgval5        avgval6        avgval7        avgval8        avgval9            bld          bldin          czabd         temper         alter#
     6.3155e-01     6.6963e-01     6.4705e-01     6.4347e-01     6.4305e-01     6.4562e-01     6.4546e-01     6.4374e-01     6.4521e-01     6.4322e-01     6.5757e-01          error          error     2.5000e+01     1.0000e+00
