$DATA1 SOURCE='FineSimPro' VERSION='L-2016.06-SP2-2'
.TITLE ''
        avgval0        avgval1        avgval2        avgval3        avgval4        avgval5        avgval6        avgval7        avgval8        avgval9            bld          bldin          czabd         temper         alter#
     6.3446e-01     6.6585e-01     6.4550e-01     6.4454e-01     6.4653e-01     6.3959e-01     6.4052e-01     6.4873e-01     6.3759e-01     6.3608e-01     6.5757e-01          error          error     2.5000e+01     1.0000e+00
