$DATA1 SOURCE='FineSimPro' VERSION='L-2016.06-SP2-2'
.TITLE ''
        avgval0        avgval1        avgval2        avgval3        avgval4        avgval5        avgval6        avgval7        avgval8        avgval9            bld          bldin          czabd         temper         alter#
     6.3978e-01     6.6352e-01     6.4521e-01     6.4353e-01     6.4882e-01     6.4142e-01     6.4340e-01     6.5386e-01     6.4145e-01     6.3964e-01     6.5757e-01          error          error     2.5000e+01     1.0000e+00
