$DATA1 SOURCE='FineSimPro' VERSION='L-2016.06-SP2-2'
.TITLE ''
        avgval0        avgval1        avgval2        avgval3        avgval4        avgval5        avgval6        avgval7        avgval8        avgval9            bld          bldin          czabd         temper         alter#
     6.3711e-01     6.6485e-01     6.3830e-01     6.5430e-01     6.4619e-01     6.5049e-01     6.4442e-01     6.5135e-01     6.5031e-01     6.3721e-01     6.5757e-01          error          error     2.5000e+01     1.0000e+00
