$DATA1 SOURCE='FineSimPro' VERSION='L-2016.06-SP2-2'
.TITLE '** Generated for: hspiceD'
    avgvall0bl0    avgvall0bl1    avgvall0bl2    avgvall0bl3    avgvall0bl4    avgvall0bl5    avgvall0bl6    avgvall0bl7    avgvall0bl8    avgvall0bl9   avgvall0bl10   avgvall0bl11   avgvall0bl12   avgvall0bl13   avgvall0bl14   avgvall0bl15   avgvall0bl16   avgvall0bl17   avgvall0bl18   avgvall0bl19   avgvall0bl20   avgvall0bl21   avgvall0bl22   avgvall0bl23   avgvall0bl24   avgvall0bl25   avgvall0bl26   avgvall0bl27   avgvall0bl28   avgvall0bl29   avgvall0bl30   avgvall0bl31   avgvall0bl32   avgvall0bl33   avgvall0bl34   avgvall0bl35   avgvall0bl36   avgvall0bl37   avgvall0bl38   avgvall0bl39   avgvall0bl40   avgvall0bl41   avgvall0bl42   avgvall0bl43   avgvall0bl44   avgvall0bl45   avgvall0bl46   avgvall0bl47   avgvall0bl48   avgvall0bl49   avgvall0bl50   avgvall0bl51   avgvall0bl52   avgvall0bl53   avgvall0bl54   avgvall0bl55   avgvall0bl56   avgvall0bl57   avgvall0bl58   avgvall0bl59   avgvall0bl60   avgvall0bl61   avgvall0bl62   avgvall0bl63   avgvall0bl64   avgvall0bl65   avgvall0bl66   avgvall0bl67   avgvall0bl68   avgvall0bl69   avgvall0bl70   avgvall0bl71   avgvall0bl72   avgvall0bl73   avgvall0bl74   avgvall0bl75   avgvall0bl76   avgvall0bl77   avgvall0bl78   avgvall0bl79   avgvall0bl80   avgvall0bl81   avgvall0bl82   avgvall0bl83   avgvall0bl84   avgvall0bl85   avgvall0bl86   avgvall0bl87   avgvall0bl88   avgvall0bl89   avgvall0bl90   avgvall0bl91   avgvall0bl92   avgvall0bl93   avgvall0bl94   avgvall0bl95   avgvall0bl96   avgvall0bl97   avgvall0bl98   avgvall0bl99  avgvall0bl100  avgvall0bl101  avgvall0bl102  avgvall0bl103  avgvall0bl104  avgvall0bl105  avgvall0bl106  avgvall0bl107  avgvall0bl108  avgvall0bl109  avgvall0bl110  avgvall0bl111  avgvall0bl112  avgvall0bl113  avgvall0bl114  avgvall0bl115  avgvall0bl116  avgvall0bl117  avgvall0bl118  avgvall0bl119  avgvall0bl120  avgvall0bl121  avgvall0bl122  avgvall0bl123  avgvall0bl124  avgvall0bl125  avgvall0bl126  avgvall0bl127  avgvall0bl128  avgvall0bl129  avgvall0bl130  avgvall0bl131  avgvall0bl132  avgvall0bl133  avgvall0bl134  avgvall0bl135  avgvall0bl136  avgvall0bl137  avgvall0bl138  avgvall0bl139  avgvall0bl140  avgvall0bl141  avgvall0bl142  avgvall0bl143  avgvall0bl144  avgvall0bl145  avgvall0bl146  avgvall0bl147  avgvall0bl148  avgvall0bl149  avgvall0bl150  avgvall0bl151  avgvall0bl152  avgvall0bl153  avgvall0bl154  avgvall0bl155  avgvall0bl156  avgvall0bl157  avgvall0bl158  avgvall0bl159  avgvall0bl160  avgvall0bl161  avgvall0bl162  avgvall0bl163  avgvall0bl164  avgvall0bl165  avgvall0bl166  avgvall0bl167  avgvall0bl168  avgvall0bl169  avgvall0bl170  avgvall0bl171  avgvall0bl172  avgvall0bl173  avgvall0bl174  avgvall0bl175  avgvall0bl176  avgvall0bl177  avgvall0bl178  avgvall0bl179  avgvall0bl180  avgvall0bl181  avgvall0bl182  avgvall0bl183  avgvall0bl184  avgvall0bl185  avgvall0bl186  avgvall0bl187  avgvall0bl188  avgvall0bl189  avgvall0bl190  avgvall0bl191  avgvall0bl192  avgvall0bl193  avgvall0bl194  avgvall0bl195  avgvall0bl196  avgvall0bl197  avgvall0bl198  avgvall0bl199  avgvall0bl200  avgvall0bl201  avgvall0bl202  avgvall0bl203  avgvall0bl204  avgvall0bl205  avgvall0bl206  avgvall0bl207  avgvall0bl208  avgvall0bl209  avgvall0bl210  avgvall0bl211  avgvall0bl212  avgvall0bl213  avgvall0bl214  avgvall0bl215  avgvall0bl216  avgvall0bl217  avgvall0bl218  avgvall0bl219  avgvall0bl220  avgvall0bl221  avgvall0bl222  avgvall0bl223  avgvall0bl224  avgvall0bl225  avgvall0bl226  avgvall0bl227  avgvall0bl228  avgvall0bl229  avgvall0bl230  avgvall0bl231  avgvall0bl232  avgvall0bl233  avgvall0bl234  avgvall0bl235  avgvall0bl236  avgvall0bl237  avgvall0bl238  avgvall0bl239  avgvall0bl240  avgvall0bl241  avgvall0bl242  avgvall0bl243  avgvall0bl244  avgvall0bl245  avgvall0bl246  avgvall0bl247  avgvall0bl248  avgvall0bl249  avgvall0bl250  avgvall0bl251  avgvall0bl252  avgvall0bl253  avgvall0bl254  avgvall0bl255  avgvall0bl256  avgvall0bl257  avgvall0bl258  avgvall0bl259  avgvall0bl260  avgvall0bl261  avgvall0bl262  avgvall0bl263  avgvall0bl264  avgvall0bl265  avgvall0bl266  avgvall0bl267  avgvall0bl268  avgvall0bl269  avgvall0bl270  avgvall0bl271  avgvall0bl272  avgvall0bl273  avgvall0bl274  avgvall0bl275  avgvall0bl276  avgvall0bl277  avgvall0bl278  avgvall0bl279  avgvall0bl280  avgvall0bl281  avgvall0bl282  avgvall0bl283  avgvall0bl284  avgvall0bl285  avgvall0bl286  avgvall0bl287  avgvall0bl288  avgvall0bl289  avgvall0bl290  avgvall0bl291  avgvall0bl292  avgvall0bl293  avgvall0bl294  avgvall0bl295  avgvall0bl296  avgvall0bl297  avgvall0bl298  avgvall0bl299  avgvall0bl300  avgvall0bl301  avgvall0bl302  avgvall0bl303  avgvall0bl304  avgvall0bl305  avgvall0bl306  avgvall0bl307  avgvall0bl308  avgvall0bl309  avgvall0bl310  avgvall0bl311  avgvall0bl312  avgvall0bl313  avgvall0bl314  avgvall0bl315  avgvall0bl316  avgvall0bl317  avgvall0bl318  avgvall0bl319  avgvall0bl320  avgvall0bl321  avgvall0bl322  avgvall0bl323  avgvall0bl324  avgvall0bl325  avgvall0bl326  avgvall0bl327  avgvall0bl328  avgvall0bl329  avgvall0bl330  avgvall0bl331  avgvall0bl332  avgvall0bl333  avgvall0bl334  avgvall0bl335  avgvall0bl336  avgvall0bl337  avgvall0bl338  avgvall0bl339  avgvall0bl340  avgvall0bl341  avgvall0bl342  avgvall0bl343  avgvall0bl344  avgvall0bl345  avgvall0bl346  avgvall0bl347  avgvall0bl348  avgvall0bl349  avgvall0bl350  avgvall0bl351  avgvall0bl352  avgvall0bl353  avgvall0bl354  avgvall0bl355  avgvall0bl356  avgvall0bl357  avgvall0bl358  avgvall0bl359  avgvall0bl360  avgvall0bl361  avgvall0bl362  avgvall0bl363  avgvall0bl364  avgvall0bl365  avgvall0bl366  avgvall0bl367  avgvall0bl368  avgvall0bl369  avgvall0bl370  avgvall0bl371  avgvall0bl372  avgvall0bl373  avgvall0bl374  avgvall0bl375  avgvall0bl376  avgvall0bl377  avgvall0bl378  avgvall0bl379  avgvall0bl380  avgvall0bl381  avgvall0bl382  avgvall0bl383  avgvall0bl384  avgvall0bl385  avgvall0bl386  avgvall0bl387  avgvall0bl388  avgvall0bl389  avgvall0bl390  avgvall0bl391  avgvall0bl392  avgvall0bl393  avgvall0bl394  avgvall0bl395  avgvall0bl396  avgvall0bl397  avgvall0bl398  avgvall0bl399  avgvall0bl400  avgvall0bl401  avgvall0bl402  avgvall0bl403  avgvall0bl404  avgvall0bl405  avgvall0bl406  avgvall0bl407  avgvall0bl408  avgvall0bl409  avgvall0bl410  avgvall0bl411  avgvall0bl412  avgvall0bl413  avgvall0bl414  avgvall0bl415  avgvall0bl416  avgvall0bl417  avgvall0bl418  avgvall0bl419  avgvall0bl420  avgvall0bl421  avgvall0bl422  avgvall0bl423  avgvall0bl424  avgvall0bl425  avgvall0bl426  avgvall0bl427  avgvall0bl428  avgvall0bl429  avgvall0bl430  avgvall0bl431  avgvall0bl432  avgvall0bl433  avgvall0bl434  avgvall0bl435  avgvall0bl436  avgvall0bl437  avgvall0bl438  avgvall0bl439  avgvall0bl440  avgvall0bl441  avgvall0bl442  avgvall0bl443  avgvall0bl444  avgvall0bl445  avgvall0bl446  avgvall0bl447  avgvall0bl448  avgvall0bl449  avgvall0bl450  avgvall0bl451  avgvall0bl452  avgvall0bl453  avgvall0bl454  avgvall0bl455  avgvall0bl456  avgvall0bl457  avgvall0bl458  avgvall0bl459  avgvall0bl460  avgvall0bl461  avgvall0bl462  avgvall0bl463  avgvall0bl464  avgvall0bl465  avgvall0bl466  avgvall0bl467  avgvall0bl468  avgvall0bl469  avgvall0bl470  avgvall0bl471  avgvall0bl472  avgvall0bl473  avgvall0bl474  avgvall0bl475  avgvall0bl476  avgvall0bl477  avgvall0bl478  avgvall0bl479  avgvall0bl480  avgvall0bl481  avgvall0bl482  avgvall0bl483  avgvall0bl484  avgvall0bl485  avgvall0bl486  avgvall0bl487  avgvall0bl488  avgvall0bl489  avgvall0bl490  avgvall0bl491  avgvall0bl492  avgvall0bl493  avgvall0bl494  avgvall0bl495  avgvall0bl496  avgvall0bl497  avgvall0bl498  avgvall0bl499  avgvall0bl500  avgvall0bl501  avgvall0bl502  avgvall0bl503  avgvall0bl504  avgvall0bl505  avgvall0bl506  avgvall0bl507  avgvall0bl508  avgvall0bl509  avgvall0bl510  avgvall0bl511        avgval0        avgval1        avgval2        avgval3        avgval4        avgval5        avgval6        avgval7        avgval8        avgval9            bld          bldin          czabd         temper         alter#
     1.2791e+00     1.2754e+00     1.2775e+00     1.2782e+00     1.2785e+00     1.2800e+00     1.2780e+00     1.2741e+00     1.2779e+00     1.2757e+00     1.2814e+00     1.2764e+00     1.2798e+00     1.2793e+00     1.2794e+00     1.2782e+00     1.2758e+00     1.2796e+00     1.2782e+00     1.2775e+00     1.2767e+00     1.2785e+00     1.2786e+00     1.2751e+00     1.2788e+00     1.2798e+00     1.2794e+00     1.2775e+00     1.2799e+00     1.2760e+00     1.2777e+00     1.2794e+00     1.2765e+00     1.2797e+00     1.2808e+00     1.2761e+00     1.2796e+00     1.2760e+00     1.2774e+00     1.2769e+00     1.2784e+00     1.2779e+00     1.2787e+00     1.2773e+00     1.2772e+00     1.2777e+00     1.2803e+00     1.2729e+00     1.2791e+00     1.2752e+00     1.2770e+00     1.2788e+00     1.2751e+00     1.2780e+00     1.2790e+00     1.2765e+00     1.2769e+00     1.2798e+00     1.2796e+00     1.2790e+00     1.2777e+00     1.2779e+00     1.2772e+00     1.2785e+00     1.2786e+00     1.2770e+00     1.2776e+00     1.2815e+00     1.2773e+00     1.2793e+00     1.2757e+00     1.2788e+00     1.2774e+00     1.2788e+00     1.2766e+00     1.2781e+00     1.2769e+00     1.2778e+00     1.2794e+00     1.2774e+00     1.2782e+00     1.2781e+00     1.2787e+00     1.2750e+00     1.2784e+00     1.2772e+00     1.2789e+00     1.2770e+00     1.2796e+00     1.2743e+00     1.2766e+00     1.2750e+00     1.2757e+00     1.2801e+00     1.2762e+00     1.2756e+00     1.2770e+00     1.2783e+00     1.2783e+00     1.2770e+00     1.2765e+00     1.2749e+00     1.2790e+00     1.2766e+00     1.2771e+00     1.2764e+00     1.2792e+00     1.2776e+00     1.2770e+00     1.2787e+00     1.2773e+00     1.2783e+00     1.2756e+00     1.2774e+00     1.2791e+00     1.2762e+00     1.2789e+00     1.2787e+00     1.2800e+00     1.2752e+00     1.2773e+00     1.2772e+00     1.2765e+00     1.2733e+00     1.2806e+00     1.2788e+00     1.2759e+00     1.2789e+00     1.2798e+00     1.2776e+00     1.2794e+00     1.2787e+00     1.2769e+00     1.2774e+00     1.2756e+00     1.2771e+00     1.2746e+00     1.2782e+00     1.2806e+00     1.2774e+00     1.2774e+00     1.2768e+00     1.2765e+00     1.2776e+00     1.2793e+00     1.2789e+00     1.2775e+00     1.2793e+00     1.2795e+00     1.2792e+00     1.2766e+00     1.2787e+00     1.2778e+00     1.2777e+00     1.2770e+00     1.2770e+00     1.2766e+00     1.2738e+00     1.2797e+00     1.2788e+00     1.2794e+00     1.2800e+00     1.2770e+00     1.2792e+00     1.2770e+00     1.2797e+00     1.2773e+00     1.2757e+00     1.2802e+00     1.2768e+00     1.2755e+00     1.2781e+00     1.2795e+00     1.2772e+00     1.2782e+00     1.2791e+00     1.2742e+00     1.2792e+00     1.2770e+00     1.2793e+00     1.2799e+00     1.2784e+00     1.2796e+00     1.2769e+00     1.2795e+00     1.2765e+00     1.2789e+00     1.2800e+00     1.2786e+00     1.2811e+00     1.2759e+00     1.2787e+00     1.2788e+00     1.2757e+00     1.2814e+00     1.2760e+00     1.2784e+00     1.2781e+00     1.2788e+00     1.2784e+00     1.2774e+00     1.2795e+00     1.2748e+00     1.2805e+00     1.2774e+00     1.2779e+00     1.2752e+00     1.2774e+00     1.2785e+00     1.2790e+00     1.2718e+00     1.2773e+00     1.2753e+00     1.2811e+00     1.2771e+00     1.2769e+00     1.2769e+00     1.2759e+00     1.2801e+00     1.2774e+00     1.2750e+00     1.2766e+00     1.2769e+00     1.2786e+00     1.2769e+00     1.2775e+00     1.2802e+00     1.2757e+00     1.2797e+00     1.2787e+00     1.2786e+00     1.2755e+00     1.2757e+00     1.2768e+00     1.2774e+00     1.2797e+00     1.2746e+00     1.2774e+00     1.2774e+00     1.2781e+00     1.2778e+00     1.2790e+00     1.2763e+00     1.2794e+00     1.2752e+00     1.2785e+00     1.2791e+00     1.2779e+00     1.2765e+00     1.2769e+00     1.2796e+00     1.2764e+00     1.2783e+00     1.2764e+00     1.2785e+00     1.2802e+00     1.2776e+00     1.2801e+00     1.2794e+00     1.2748e+00     1.2819e+00     1.2798e+00     1.2788e+00     1.2759e+00     1.2766e+00     1.2802e+00     1.2768e+00     1.2772e+00     1.2746e+00     1.2777e+00     1.2774e+00     1.2770e+00     1.2817e+00     1.2776e+00     1.2753e+00     1.2792e+00     1.2771e+00     1.2792e+00     1.2789e+00     1.2764e+00     1.2782e+00     1.2775e+00     1.2806e+00     1.2810e+00     1.2767e+00     1.2796e+00     1.2791e+00     1.2767e+00     1.2773e+00     1.2778e+00     1.2793e+00     1.2777e+00     1.2793e+00     1.2784e+00     1.2762e+00     1.2788e+00     1.2777e+00     1.2766e+00     1.2776e+00     1.2790e+00     1.2791e+00     1.2766e+00     1.2791e+00     1.2797e+00     1.2763e+00     1.2788e+00     1.2770e+00     1.2766e+00     1.2764e+00     1.2781e+00     1.2794e+00     1.2806e+00     1.2785e+00     1.2753e+00     1.2784e+00     1.2762e+00     1.2759e+00     1.2731e+00     1.2772e+00     1.2762e+00     1.2774e+00     1.2785e+00     1.2784e+00     1.2785e+00     1.2756e+00     1.2797e+00     1.2783e+00     1.2769e+00     1.2803e+00     1.2764e+00     1.2769e+00     1.2771e+00     1.2771e+00     1.2775e+00     1.2801e+00     1.2770e+00     1.2764e+00     1.2770e+00     1.2793e+00     1.2778e+00     1.2764e+00     1.2788e+00     1.2768e+00     1.2770e+00     1.2741e+00     1.2781e+00     1.2783e+00     1.2776e+00     1.2782e+00     1.2796e+00     1.2787e+00     1.2769e+00     1.2812e+00     1.2789e+00     1.2748e+00     1.2787e+00     1.2789e+00     1.2753e+00     1.2769e+00     1.2786e+00     1.2787e+00     1.2761e+00     1.2793e+00     1.2754e+00     1.2796e+00     1.2802e+00     1.2774e+00     1.2782e+00     1.2756e+00     1.2787e+00     1.2783e+00     1.2775e+00     1.2781e+00     1.2803e+00     1.2756e+00     1.2732e+00     1.2745e+00     1.2794e+00     1.2786e+00     1.2788e+00     1.2784e+00     1.2782e+00     1.2770e+00     1.2753e+00     1.2791e+00     1.2774e+00     1.2781e+00     1.2778e+00     1.2788e+00     1.2790e+00     1.2762e+00     1.2775e+00     1.2767e+00     1.2763e+00     1.2767e+00     1.2761e+00     1.2790e+00     1.2778e+00     1.2767e+00     1.2783e+00     1.2775e+00     1.2764e+00     1.2771e+00     1.2797e+00     1.2809e+00     1.2769e+00     1.2760e+00     1.2786e+00     1.2793e+00     1.2775e+00     1.2788e+00     1.2761e+00     1.2763e+00     1.2789e+00     1.2792e+00     1.2775e+00     1.2780e+00     1.2810e+00     1.2770e+00     1.2794e+00     1.2752e+00     1.2781e+00     1.2797e+00     1.2744e+00     1.2748e+00     1.2797e+00     1.2765e+00     1.2781e+00     1.2791e+00     1.2799e+00     1.2784e+00     1.2766e+00     1.2762e+00     1.2781e+00     1.2773e+00     1.2781e+00     1.2811e+00     1.2778e+00     1.2798e+00     1.2772e+00     1.2766e+00     1.2776e+00     1.2801e+00     1.2761e+00     1.2787e+00     1.2786e+00     1.2776e+00     1.2797e+00     1.2787e+00     1.2772e+00     1.2784e+00     1.2799e+00     1.2762e+00     1.2781e+00     1.2767e+00     1.2792e+00     1.2769e+00     1.2766e+00     1.2790e+00     1.2769e+00     1.2762e+00     1.2779e+00     1.2792e+00     1.2771e+00     1.2765e+00     1.2767e+00     1.2760e+00     1.2773e+00     1.2771e+00     1.2765e+00     1.2782e+00     1.2763e+00     1.2774e+00     1.2763e+00     1.2745e+00     1.2784e+00     1.2791e+00     1.2772e+00     1.2792e+00     1.2780e+00     1.2789e+00     1.2796e+00     1.2763e+00     1.2791e+00     1.2800e+00     1.2794e+00     1.2770e+00     1.2769e+00     1.2772e+00     1.2772e+00     1.2756e+00     1.2785e+00     1.2791e+00     1.2789e+00     1.2787e+00     1.2773e+00     1.2771e+00     1.2796e+00     1.2760e+00     1.2808e+00     1.2784e+00     1.2779e+00     1.2771e+00     1.2745e+00     1.2766e+00     1.2788e+00     1.2757e+00     1.2750e+00     1.2778e+00     1.2778e+00     1.2795e+00     1.2759e+00     1.2768e+00     1.2790e+00     1.2785e+00     1.2782e+00     1.2769e+00     1.2770e+00     1.2782e+00     1.2779e+00     1.2758e+00     1.2778e+00     1.2768e+00          error          error     2.5000e+01     1.0000e+00
