$DATA1 SOURCE='FineSimPro' VERSION='L-2016.06-SP2-2'
.TITLE ''
        avgval0        avgval1        avgval2        avgval3        avgval4        avgval5        avgval6        avgval7        avgval8        avgval9            bld          bldin          czabd         temper         alter#
     5.9835e-01     6.8140e-01     6.0966e-01     6.1460e-01     6.2193e-01     6.0387e-01     5.9279e-01     6.1803e-01     6.1437e-01     5.9651e-01     6.5757e-01          error          error     2.5000e+01     1.0000e+00
