$DATA1 SOURCE='FineSimPro' VERSION='L-2016.06-SP2-2'
.TITLE ''
        avgval0        avgval1        avgval2        avgval3        avgval4        avgval5        avgval6        avgval7        avgval8        avgval9            bld          bldin          czabd         temper         alter#
     6.0479e-01     6.8905e-01     6.0806e-01     6.1978e-01     6.1681e-01     6.0002e-01     5.9803e-01     6.1301e-01     6.2798e-01     5.8955e-01     6.5757e-01          error          error     2.5000e+01     1.0000e+00
