$DATA1 SOURCE='FineSimPro' VERSION='L-2016.06-SP2-2'
.TITLE ''
        avgval0        avgval1        avgval2        avgval3        avgval4        avgval5        avgval6        avgval7        avgval8        avgval9            bld          bldin          czabd         temper         alter#
     6.2166e-01     5.8547e-01     6.9481e-01     6.1724e-01     6.0324e-01     6.1047e-01     5.9218e-01     5.9829e-01     6.1297e-01     6.0205e-01     6.5757e-01          error          error     2.5000e+01     1.0000e+00
