$DATA1 SOURCE='FineSimPro' VERSION='L-2016.06-SP2-2'
.TITLE ''
        avgval0        avgval1        avgval2        avgval3        avgval4        avgval5        avgval6        avgval7        avgval8        avgval9            bld          bldin          czabd         temper         alter#
     6.0640e-01     5.8892e-01     7.0600e-01     6.0878e-01     6.0337e-01     6.1264e-01     5.8647e-01     6.0725e-01     6.1312e-01     5.9681e-01     6.5757e-01          error          error     2.5000e+01     1.0000e+00
