$DATA1 SOURCE='FineSimPro' VERSION='L-2016.06-SP2-2'
.TITLE ''
        avgval0        avgval1        avgval2        avgval3        avgval4        avgval5        avgval6        avgval7        avgval8        avgval9            bld          bldin          czabd         temper         alter#
     7.1414e-01     5.9140e-01     5.9064e-01     6.1158e-01     6.1436e-01     6.0487e-01     5.9332e-01     6.1331e-01     6.0772e-01     5.9461e-01     6.5757e-01          error          error     2.5000e+01     1.0000e+00
