$DATA1 SOURCE='FineSimPro' VERSION='L-2016.06-SP2-2'
.TITLE ''
        avgval0        avgval1        avgval2        avgval3        avgval4        avgval5        avgval6        avgval7        avgval8        avgval9            bld          bldin          czabd         temper         alter#
     6.0382e-01     5.7684e-01     5.9091e-01     6.9267e-01     6.0799e-01     5.9559e-01     6.0587e-01     6.3129e-01     6.1745e-01     5.9972e-01     6.5757e-01          error          error     2.5000e+01     1.0000e+00
