$DATA1 SOURCE='FineSimPro' VERSION='L-2016.06-SP2-2'
.TITLE ''
        avgval0        avgval1        avgval2        avgval3        avgval4        avgval5        avgval6        avgval7        avgval8        avgval9            bld          bldin          czabd         temper         alter#
     5.8710e-01     6.0292e-01     5.9737e-01     6.8065e-01     6.0521e-01     6.2630e-01     6.2034e-01     6.1454e-01     6.0794e-01     5.8732e-01     6.5757e-01          error          error     2.5000e+01     1.0000e+00
