$DATA1 SOURCE='FineSimPro' VERSION='L-2016.06-SP2-2'
.TITLE ''
        avgval0        avgval1        avgval2        avgval3        avgval4        avgval5        avgval6        avgval7        avgval8        avgval9            bld          bldin          czabd         temper         alter#
     6.0605e-01     5.7566e-01     6.0695e-01     6.9535e-01     6.1297e-01     5.9545e-01     5.8763e-01     6.0834e-01     6.2342e-01     5.9192e-01     6.5757e-01          error          error     2.5000e+01     1.0000e+00
