$DATA1 SOURCE='FineSimPro' VERSION='L-2016.06-SP2-2'
.TITLE ''
        avgval0        avgval1        avgval2        avgval3        avgval4        avgval5        avgval6        avgval7        avgval8        avgval9            bld          bldin          czabd         temper         alter#
     6.0380e-01     5.7839e-01     6.3257e-01     6.3916e-01     5.8450e-01     6.2099e-01     6.0580e-01     5.9234e-01     6.7503e-01     5.9300e-01     6.5757e-01          error          error     2.5000e+01     1.0000e+00
