$DATA1 SOURCE='FineSimPro' VERSION='L-2016.06-SP2-2'
.TITLE ''
        avgval0        avgval1        avgval2        avgval3        avgval4        avgval5        avgval6        avgval7        avgval8        avgval9            bld          bldin          czabd         temper         alter#
     6.0035e-01     5.9876e-01     6.0174e-01     6.9648e-01     6.0395e-01     6.1132e-01     6.0862e-01     5.9770e-01     6.2918e-01     5.8843e-01     6.5757e-01          error          error     2.5000e+01     1.0000e+00
