$DATA1 SOURCE='FineSimPro' VERSION='L-2016.06-SP2-2'
.TITLE ''
        avgval0        avgval1        avgval2        avgval3        avgval4        avgval5        avgval6        avgval7        avgval8        avgval9            bld          bldin          czabd         temper         alter#
     6.1858e-01     5.9020e-01     6.9845e-01     6.0993e-01     5.9670e-01     6.0220e-01     5.8682e-01     6.0652e-01     6.3170e-01     5.9418e-01     6.5757e-01          error          error     2.5000e+01     1.0000e+00
