$DATA1 SOURCE='FineSimPro' VERSION='L-2016.06-SP2-2'
.TITLE ''
        avgval0        avgval1        avgval2        avgval3        avgval4        avgval5        avgval6        avgval7        avgval8        avgval9            bld          bldin          czabd         temper         alter#
     6.0525e-01     5.8364e-01     6.0013e-01     6.0434e-01     7.0400e-01     6.0471e-01     5.8872e-01     6.0776e-01     6.0806e-01     6.2463e-01     6.5757e-01          error          error     2.5000e+01     1.0000e+00
