$DATA1 SOURCE='FineSimPro' VERSION='L-2016.06-SP2-2'
.TITLE ''
        avgval0        avgval1        avgval2        avgval3        avgval4        avgval5        avgval6        avgval7        avgval8        avgval9            bld          bldin          czabd         temper         alter#
     6.0325e-01     5.8607e-01     6.1193e-01     6.9775e-01     6.0971e-01     5.9498e-01     6.0081e-01     6.0213e-01     6.1680e-01     5.9629e-01     6.5757e-01          error          error     2.5000e+01     1.0000e+00
