$DATA1 SOURCE='FineSimPro' VERSION='L-2016.06-SP2-2'
.TITLE ''
        avgval0        avgval1        avgval2        avgval3        avgval4        avgval5        avgval6        avgval7        avgval8        avgval9            bld          bldin          czabd         temper         alter#
     6.1481e-01     5.7896e-01     5.9829e-01     6.0195e-01     7.0625e-01     6.0742e-01     5.8301e-01     6.1920e-01     5.9194e-01     6.1719e-01     6.5757e-01          error          error     2.5000e+01     1.0000e+00
