$DATA1 SOURCE='FineSimPro' VERSION='L-2016.06-SP2-2'
.TITLE ''
        avgval0        avgval1        avgval2        avgval3        avgval4        avgval5        avgval6        avgval7        avgval8        avgval9            bld          bldin          czabd         temper         alter#
     6.0180e-01     5.8928e-01     5.9524e-01     6.0590e-01     7.0650e-01     6.0172e-01     5.9067e-01     6.0645e-01     6.1198e-01     6.0734e-01     6.5757e-01          error          error     2.5000e+01     1.0000e+00
