$DATA1 SOURCE='FineSimPro' VERSION='L-2016.06-SP2-2'
.TITLE ''
        avgval0        avgval1        avgval2        avgval3        avgval4        avgval5        avgval6        avgval7        avgval8        avgval9            bld          bldin          czabd         temper         alter#
     6.4653e-01     5.6884e-01     6.0279e-01     5.7999e-01     6.7445e-01     6.2822e-01     6.2982e-01     5.9973e-01     5.8275e-01     6.0695e-01     6.5757e-01          error          error     2.5000e+01     1.0000e+00
