$DATA1 SOURCE='FineSimPro' VERSION='L-2016.06-SP2-2'
.TITLE ''
        avgval0        avgval1        avgval2        avgval3        avgval4        avgval5        avgval6        avgval7        avgval8        avgval9            bld          bldin          czabd         temper         alter#
     6.0363e-01     5.6076e-01     5.8153e-01     5.8579e-01     6.6793e-01     6.1938e-01     5.9465e-01     6.1215e-01     6.2252e-01     6.5554e-01     6.5757e-01          error          error     2.5000e+01     1.0000e+00
