$DATA1 SOURCE='FineSimPro' VERSION='L-2016.06-SP2-2'
.TITLE ''
        avgval0        avgval1        avgval2        avgval3        avgval4        avgval5        avgval6        avgval7        avgval8        avgval9            bld          bldin          czabd         temper         alter#
     6.0030e-01     5.9639e-01     5.9176e-01     5.9790e-01     7.0884e-01     6.1297e-01     5.9214e-01     6.1383e-01     6.0416e-01     5.9745e-01     6.5757e-01          error          error     2.5000e+01     1.0000e+00
