$DATA1 SOURCE='FineSimPro' VERSION='L-2016.06-SP2-2'
.TITLE ''
        avgval0        avgval1        avgval2        avgval3        avgval4        avgval5        avgval6        avgval7        avgval8        avgval9            bld          bldin          czabd         temper         alter#
     6.1130e-01     5.6919e-01     5.8629e-01     6.1927e-01     6.2353e-01     6.9891e-01     6.0541e-01     6.0917e-01     6.1720e-01     5.9490e-01     6.5757e-01          error          error     2.5000e+01     1.0000e+00
