$DATA1 SOURCE='FineSimPro' VERSION='L-2016.06-SP2-2'
.TITLE ''
        avgval0        avgval1        avgval2        avgval3        avgval4        avgval5        avgval6        avgval7        avgval8        avgval9            bld          bldin          czabd         temper         alter#
     6.0780e-01     6.0866e-01     6.0158e-01     5.6954e-01     6.2213e-01     6.5921e-01     6.5311e-01     5.8328e-01     6.1141e-01     6.0747e-01     6.5757e-01          error          error     2.5000e+01     1.0000e+00
