$DATA1 SOURCE='FineSimPro' VERSION='L-2016.06-SP2-2'
.TITLE ''
        avgval0        avgval1        avgval2        avgval3        avgval4        avgval5        avgval6        avgval7        avgval8        avgval9            bld          bldin          czabd         temper         alter#
     7.1789e-01     5.9498e-01     5.8618e-01     6.0333e-01     5.9967e-01     6.0680e-01     5.9373e-01     6.1602e-01     6.2598e-01     5.9731e-01     6.5757e-01          error          error     2.5000e+01     1.0000e+00
