$DATA1 SOURCE='FineSimPro' VERSION='L-2016.06-SP2-2'
.TITLE ''
        avgval0        avgval1        avgval2        avgval3        avgval4        avgval5        avgval6        avgval7        avgval8        avgval9            bld          bldin          czabd         temper         alter#
     6.1599e-01     5.9417e-01     6.0784e-01     6.0883e-01     6.2105e-01     5.9220e-01     6.8523e-01     6.2653e-01     6.0557e-01     5.8727e-01     6.5757e-01          error          error     2.5000e+01     1.0000e+00
