$DATA1 SOURCE='FineSimPro' VERSION='L-2016.06-SP2-2'
.TITLE ''
        avgval0        avgval1        avgval2        avgval3        avgval4        avgval5        avgval6        avgval7        avgval8        avgval9            bld          bldin          czabd         temper         alter#
     6.1514e-01     5.9922e-01     5.9224e-01     6.0230e-01     6.0675e-01     6.2534e-01     6.9375e-01     6.1385e-01     6.1430e-01     5.9699e-01     6.5757e-01          error          error     2.5000e+01     1.0000e+00
