$DATA1 SOURCE='FineSimPro' VERSION='L-2016.06-SP2-2'
.TITLE ''
        avgval0        avgval1        avgval2        avgval3        avgval4        avgval5        avgval6        avgval7        avgval8        avgval9            bld          bldin          czabd         temper         alter#
     6.1940e-01     5.9795e-01     5.8643e-01     6.0971e-01     6.0856e-01     6.1980e-01     6.9835e-01     6.0882e-01     6.2293e-01     5.9036e-01     6.5757e-01          error          error     2.5000e+01     1.0000e+00
