$DATA1 SOURCE='FineSimPro' VERSION='L-2016.06-SP2-2'
.TITLE ''
        avgval0        avgval1        avgval2        avgval3        avgval4        avgval5        avgval6        avgval7        avgval8        avgval9            bld          bldin          czabd         temper         alter#
     6.1354e-01     5.9227e-01     6.2666e-01     6.0772e-01     6.0270e-01     5.9794e-01     5.9068e-01     6.9540e-01     6.0299e-01     5.9741e-01     6.5757e-01          error          error     2.5000e+01     1.0000e+00
