$DATA1 SOURCE='FineSimPro' VERSION='L-2016.06-SP2-2'
.TITLE ''
        avgval0        avgval1        avgval2        avgval3        avgval4        avgval5        avgval6        avgval7        avgval8        avgval9            bld          bldin          czabd         temper         alter#
     6.2996e-01     6.1039e-01     6.0220e-01     5.9826e-01     6.1275e-01     6.4500e-01     6.7343e-01     6.1337e-01     6.0156e-01     5.9026e-01     6.5757e-01          error          error     2.5000e+01     1.0000e+00
