$DATA1 SOURCE='FineSimPro' VERSION='L-2016.06-SP2-2'
.TITLE ''
        avgval0        avgval1        avgval2        avgval3        avgval4        avgval5        avgval6        avgval7        avgval8        avgval9            bld          bldin          czabd         temper         alter#
     7.1222e-01     5.9376e-01     5.8267e-01     6.0454e-01     6.0301e-01     5.8437e-01     6.0716e-01     6.0977e-01     6.1077e-01     5.9424e-01     6.5757e-01          error          error     2.5000e+01     1.0000e+00
