$DATA1 SOURCE='FineSimPro' VERSION='L-2016.06-SP2-2'
.TITLE ''
        avgval0        avgval1        avgval2        avgval3        avgval4        avgval5        avgval6        avgval7        avgval8        avgval9            bld          bldin          czabd         temper         alter#
     6.2137e-01     5.8316e-01     6.0929e-01     6.0222e-01     6.2115e-01     5.9175e-01     5.9285e-01     6.9808e-01     5.9210e-01     5.9234e-01     6.5757e-01          error          error     2.5000e+01     1.0000e+00
