$DATA1 SOURCE='FineSimPro' VERSION='L-2016.06-SP2-2'
.TITLE ''
        avgval0        avgval1        avgval2        avgval3        avgval4        avgval5        avgval6        avgval7        avgval8        avgval9            bld          bldin          czabd         temper         alter#
     6.1023e-01     5.8586e-01     6.0419e-01     6.0543e-01     6.1360e-01     5.9839e-01     5.9013e-01     7.0030e-01     6.0200e-01     5.9883e-01     6.5757e-01          error          error     2.5000e+01     1.0000e+00
