$DATA1 SOURCE='FineSimPro' VERSION='L-2016.06-SP2-2'
.TITLE ''
        avgval0        avgval1        avgval2        avgval3        avgval4        avgval5        avgval6        avgval7        avgval8        avgval9            bld          bldin          czabd         temper         alter#
     6.1027e-01     5.8834e-01     6.0524e-01     6.0991e-01     6.0632e-01     5.9342e-01     6.0296e-01     6.9479e-01     6.0030e-01     5.9510e-01     6.5757e-01          error          error     2.5000e+01     1.0000e+00
