$DATA1 SOURCE='FineSimPro' VERSION='L-2016.06-SP2-2'
.TITLE ''
        avgval0        avgval1        avgval2        avgval3        avgval4        avgval5        avgval6        avgval7        avgval8        avgval9            bld          bldin          czabd         temper         alter#
     6.1620e-01     5.8213e-01     6.0489e-01     6.1398e-01     6.1876e-01     5.9118e-01     5.9964e-01     7.0627e-01     6.1179e-01     6.0606e-01     6.5757e-01          error          error     2.5000e+01     1.0000e+00
