$DATA1 SOURCE='FineSimPro' VERSION='L-2016.06-SP2-2'
.TITLE ''
        avgval0        avgval1        avgval2        avgval3        avgval4        avgval5        avgval6        avgval7        avgval8        avgval9            bld          bldin          czabd         temper         alter#
     5.8929e-01     5.6461e-01     5.8930e-01     6.0048e-01     6.1519e-01     6.3835e-01     6.0929e-01     5.8856e-01     6.8583e-01     6.1529e-01     6.5757e-01          error          error     2.5000e+01     1.0000e+00
