$DATA1 SOURCE='FineSimPro' VERSION='L-2016.06-SP2-2'
.TITLE ''
        avgval0        avgval1        avgval2        avgval3        avgval4        avgval5        avgval6        avgval7        avgval8        avgval9            bld          bldin          czabd         temper         alter#
     7.1311e-01     5.8506e-01     5.8669e-01     6.0216e-01     6.1057e-01     5.9434e-01     5.9676e-01     6.0800e-01     6.1829e-01     5.8568e-01     6.5757e-01          error          error     2.5000e+01     1.0000e+00
