$DATA1 SOURCE='FineSimPro' VERSION='L-2016.06-SP2-2'
.TITLE ''
        avgval0        avgval1        avgval2        avgval3        avgval4        avgval5        avgval6        avgval7        avgval8        avgval9            bld          bldin          czabd         temper         alter#
     6.0855e-01     5.8224e-01     5.9216e-01     6.0508e-01     6.0917e-01     6.1909e-01     5.9833e-01     6.0924e-01     7.1177e-01     6.0676e-01     6.5757e-01          error          error     2.5000e+01     1.0000e+00
