$DATA1 SOURCE='FineSimPro' VERSION='L-2016.06-SP2-2'
.TITLE ''
        avgval0        avgval1        avgval2        avgval3        avgval4        avgval5        avgval6        avgval7        avgval8        avgval9            bld          bldin          czabd         temper         alter#
     6.0493e-01     5.7680e-01     6.3614e-01     5.9045e-01     6.0332e-01     6.2506e-01     5.9043e-01     5.7997e-01     6.8643e-01     6.1709e-01     6.5757e-01          error          error     2.5000e+01     1.0000e+00
