$DATA1 SOURCE='FineSimPro' VERSION='L-2016.06-SP2-2'
.TITLE ''
        avgval0        avgval1        avgval2        avgval3        avgval4        avgval5        avgval6        avgval7        avgval8        avgval9            bld          bldin          czabd         temper         alter#
     6.2217e-01     5.8604e-01     6.0060e-01     6.0774e-01     6.2325e-01     6.0546e-01     5.7373e-01     6.1846e-01     5.9544e-01     6.9255e-01     6.5757e-01          error          error     2.5000e+01     1.0000e+00
