$DATA1 SOURCE='FineSimPro' VERSION='L-2016.06-SP2-2'
.TITLE ''
        avgval0        avgval1        avgval2        avgval3        avgval4        avgval5        avgval6        avgval7        avgval8        avgval9            bld          bldin          czabd         temper         alter#
     6.0243e-01     5.9100e-01     6.0351e-01     6.0878e-01     6.2036e-01     6.1884e-01     5.9044e-01     6.1067e-01     5.9220e-01     6.8428e-01     6.5757e-01          error          error     2.5000e+01     1.0000e+00
