$DATA1 SOURCE='FineSimPro' VERSION='L-2016.06-SP2-2'
.TITLE ''
        avgval0        avgval1        avgval2        avgval3        avgval4        avgval5        avgval6        avgval7        avgval8        avgval9            bld          bldin          czabd         temper         alter#
     6.2240e-01     6.1535e-01     5.6124e-01     6.2770e-01     6.4095e-01     5.9129e-01     5.7817e-01     6.2735e-01     6.4424e-01     6.6375e-01     6.5757e-01          error          error     2.5000e+01     1.0000e+00
